/*--------------------------------*- C++ -*----------------------------------*\
| =========                 |                                                 |
| \\      /  F ield         | OpenFOAM: The Open Source CFD Toolbox           |
|  \\    /   O peration     | Version:  4.x                                   |
|   \\  /    A nd           | Web:      www.OpenFOAM.org                      |
|    \\/     M anipulation  |                                                 |
\*---------------------------------------------------------------------------*/
FoamFile
{
    version     2.0;
    format      ascii;
    class       dictionary;
    object      fvOptions;
}
// * * * * * * * * * * * * * * * * * * * * * * * * * * * * * * * * * * * * * //

//heatSource
//{
//    type            scalarSemiImplicitSource;
//    active          true;
//    selectionMode   all;
//
//    volumeMode      absolute;
//
//    scalarSemiImplicitSourceCoeffs
//    {
//        k           (30.7 0);
//        epsilon     (1.5  0);
//    }
//}
