/*--------------------------------*- C++ -*----------------------------------*\
  =========                 |
  \\      /  F ield         | OpenFOAM: The Open Source CFD Toolbox
   \\    /   O peration     | Website:  https://openfoam.org
    \\  /    A nd           | Version:  7
     \\/     M anipulation  |
\*---------------------------------------------------------------------------*/
FoamFile
{
    version     2.0;
    format      ascii;
    class       dictionary;
    object      thermophysicalProperties;
}
// * * * * * * * * * * * * * * * * * * * * * * * * * * * * * * * * * * * * * //

thermoType
{
    type            hesolidThermo;
    mixture         pureMixture;
    transport       constIso;
    thermo          hConst;
    equationOfState rhoConst;
    specie          specie;
    energy          sensibleEnthalpy;
}

//This file is obsolete but kept for reference
//Latest versions of HEAT use temperature dependent DT and kappa
//as defined in those respective files
 //sigrafine 6510 Graphite
mixture
{
    specie
    {
        molWeight       12.011;  // [g mol^-1]
    }
    equationOfState
    {
        rho             1830;   // [kg m^-3]
    }
    thermodynamics
    {
        Hf              0;
        Cp              1500;  // [J kg^-1 K^-1]  average value (need full curve)
                               // See Endler W7X paper from 2018 for heat capacity curve
    }
    transport
    {
        kappa           110;  // [W m^-1 K^-1]
    }
}

// ************************************************************************* //
